
     RDKit          3D

 11 13  0  0  0  0  0  0  0  0999 V2000
  -35.4328  -14.5041  145.5794 C   0  0  0  0  0  0  0  0  0  0  0  0
  -36.5044  -13.5323  145.0886 C   0  0  0  0  0  0  0  0  0  0  0  0
  -37.2152  -14.0255  143.8203 C   0  0  0  0  0  0  0  0  0  0  0  0
  -37.9932  -12.9542  143.0883 C   0  0  0  0  0  0  0  0  0  0  0  0
  -37.0959  -12.0436  142.2800 C   0  0  0  0  0  0  0  0  0  0  0  0
  -37.3168  -13.7861  146.3571 C   0  0  0  0  0  0  0  0  0  0  0  0
  -36.6477  -13.4655  142.5348 C   0  0  0  0  0  0  0  0  0  0  0  0
  -37.6457  -16.4301  148.1956 C   0  0  0  0  0  0  0  0  0  0  0  0
  -36.9085  -16.3331  149.5310 C   0  0  0  0  0  0  0  0  0  0  0  0
  -36.2416  -14.7552  146.8528 C   0  0  0  0  0  0  0  0  0  0  0  0
  -36.7184  -16.2150  146.9888 C   0  0  0  0  0  0  0  0  0  0  0  0
  2  1  1  0
  3  2  1  0
  4  3  1  0
  5  4  1  0
  6  2  1  0
  7  3  1  0
  7  4  1  0
  7  5  1  0
  9  8  1  0
 10  1  1  0
 10  6  1  0
 11  8  1  0
 11 10  1  0
M  END
$$$$
