
     RDKit          3D

 10 12  0  0  0  0  0  0  0  0999 V2000
  -34.2211  -17.7563  145.9256 F   0  0  0  0  0  0  0  0  0  0  0  0
  -28.0398  -16.6042  144.4408 C   0  0  0  0  0  0  0  0  0  0  0  0
  -29.2553  -16.7145  143.5449 C   0  0  0  0  0  0  0  0  0  0  0  0
  -30.3507  -18.1017  144.0090 S   0  0  0  0  0  0  0  0  0  0  0  0
  -27.8813  -17.2447  143.0797 C   0  0  0  0  0  0  0  0  0  0  0  0
  -31.8696  -16.6880  144.9318 As  0  0  0  0  0  3  0  0  0  0  0  0
  -32.8996  -18.1298  145.7582 C   0  0  0  0  0  0  0  0  0  0  0  0
  -32.1211  -18.0361  147.0552 C   0  0  0  0  0  0  0  0  0  0  0  0
  -28.8894  -16.7280  142.0768 C   0  0  0  0  0  0  0  0  0  0  0  0
  -31.2197  -16.9340  146.7184 N   0  0  0  0  0  0  0  0  0  0  0  0
  3  2  1  0
  4  3  1  0
  5  2  1  0
  5  3  1  0
  6  4  1  0
  7  1  1  0
  7  6  1  0
  8  7  1  0
  9  3  1  0
  9  5  1  0
 10  6  1  0
 10  8  1  0
M  END
$$$$
