
     RDKit          3D

 11 11  0  0  0  0  0  0  0  0999 V2000
  -23.0212  -16.4961  144.2178 O   0  0  0  0  0  1  0  0  0  0  0  0
  -24.0536  -16.5284  145.0614 C   0  0  0  0  0  0  0  0  0  0  0  0
  -24.4520  -17.6736  145.6145 N   0  0  0  0  0  0  0  0  0  0  0  0
  -23.5605  -18.4407  146.2579 C   0  0  0  0  0  0  0  0  0  0  0  0
  -23.3205  -15.6025  145.7215 N   0  0  0  0  0  2  0  0  0  0  0  0
  -23.8103  -18.9166  147.5662 C   0  0  0  0  0  0  0  0  0  0  0  0
  -23.2486  -19.7137  145.7543 C   0  0  0  0  0  0  0  0  0  0  0  0
  -24.2789  -20.2698  144.9499 C   0  0  0  0  0  0  0  0  0  0  0  0
  -25.5925  -20.2364  145.3858 C   0  0  0  0  0  0  0  0  0  0  0  0
  -25.8450  -19.8275  146.6981 C   0  0  0  0  0  0  0  0  0  0  0  0
  -25.3745  -18.6134  147.2000 C   0  0  0  0  0  0  0  0  0  0  0  0
  2  1  1  0
  3  2  1  0
  4  3  1  0
  5  2  1  0
  6  4  1  0
  7  4  1  0
  8  7  1  0
  9  8  2  0
 10  9  1  0
 11  6  1  0
 11 10  1  0
M  RAD  2   1   2   5   2
M  END
$$$$
