
     RDKit          3D

 11 13  0  0  0  0  0  0  0  0999 V2000
  -24.0341   -1.0034  140.8876 O   0  0  0  0  0  0  0  0  0  0  0  0
  -23.6410    0.3364  141.0060 C   0  0  0  0  0  0  0  0  0  0  0  0
  -24.6218    1.1407  140.4103 O   0  0  0  0  0  0  0  0  0  0  0  0
  -22.3084    0.5378  140.2701 C   0  0  0  0  0  0  0  0  0  0  0  0
  -21.4663    1.6908  140.7725 C   0  0  0  0  0  0  0  0  0  0  0  0
  -20.6738    1.3502  142.0166 C   0  0  0  0  0  0  0  0  0  0  0  0
  -21.4318    1.3360  143.1976 O   0  0  0  0  0  0  0  0  0  0  0  0
  -21.3061    2.6061  143.7845 C   0  0  0  0  0  0  0  0  0  0  0  0
  -22.4645    3.5466  143.4971 C   0  0  0  0  0  0  0  0  0  0  0  0
  -22.3694    2.8464  144.8413 C   0  0  0  0  0  0  0  0  0  0  0  0
  -21.0693    0.2276  141.0839 C   0  0  0  0  0  0  0  0  0  0  0  0
  2  1  1  0
  3  2  1  0
  4  2  1  0
  5  4  1  0
  6  5  1  0
  7  6  1  0
  8  7  1  0
  9  8  1  0
 10  8  1  0
 10  9  1  0
 11  4  1  0
 11  5  1  0
 11  6  1  0
M  END
$$$$
