
     RDKit          3D

 11 12  0  0  0  0  0  0  0  0999 V2000
  -23.4532   -5.7301  138.7849 O   0  0  0  0  0  0  0  0  0  0  0  0
  -24.0239   -4.5428  138.2830 C   0  0  0  0  0  0  0  0  0  0  0  0
  -23.7327   -4.3744  136.7680 C   0  0  0  0  0  0  0  0  0  0  0  0
  -23.4064   -2.8735  136.5582 C   0  0  0  0  0  0  0  0  0  0  0  0
  -23.3417   -3.3450  138.9644 C   0  0  0  0  0  0  0  0  0  0  0  0
  -25.5525   -4.5594  138.5764 C   0  0  0  0  0  0  0  0  0  0  0  0
  -21.8672   -1.8494  137.4503 C   0  0  0  0  0  0  0  0  0  0  0  0
  -26.2243   -3.3610  138.0733 N   0  0  0  0  0  0  0  0  0  0  0  0
  -22.0315   -2.5196  136.1604 N   0  0  0  0  0  0  0  0  0  0  0  0
  -22.6844   -5.2190  136.3615 O   0  0  0  0  0  0  0  0  0  0  0  0
  -23.2647   -2.2300  137.9191 C   0  0  0  0  0  0  0  0  0  0  0  0
  2  1  1  0
  3  2  1  0
  4  3  1  0
  5  2  1  0
  6  2  1  0
  8  6  1  0
  9  4  1  0
  9  7  1  0
 10  3  1  0
 11  4  1  0
 11  5  1  0
 11  7  1  0
M  END
$$$$
