
     RDKit          3D

 11 11  0  0  0  0  0  0  0  0999 V2000
  -37.7994  -16.0149  150.9329 F   0  0  0  0  0  0  0  0  0  0  0  0
  -36.5029  -16.3531  150.6018 C   0  0  0  0  0  0  0  0  0  0  0  0
  -35.6219  -16.2895  151.6598 F   0  0  0  0  0  0  0  0  0  0  0  0
  -35.3351  -18.4130  150.2111 F   0  0  0  0  0  0  0  0  0  0  0  0
  -36.3287  -17.5788  149.7345 C   0  0  0  0  0  0  0  0  0  0  0  0
  -35.8501  -16.8185  148.6492 O   0  0  0  0  0  0  0  0  0  0  0  0
  -37.6180  -18.3622  149.3939 C   0  0  0  0  0  0  0  0  0  0  0  0
  -38.4958  -17.6212  148.4034 C   0  0  0  0  0  0  0  0  0  0  0  0
  -36.0055  -15.6265  149.3850 C   0  0  0  0  0  0  0  0  0  0  0  0
  -39.7775  -17.2749  148.6005 C   0  0  0  0  0  0  0  0  0  0  0  0
  -40.5649  -17.6359  149.8211 C   0  0  0  0  0  0  0  0  0  0  0  0
  2  1  1  0
  3  2  1  0
  5  2  1  0
  5  4  1  0
  6  5  1  0
  7  5  1  0
  8  7  1  0
  9  2  1  0
  9  6  1  0
 10  8  2  3
 11 10  1  0
M  END
$$$$
