
     RDKit          3D

 11 11  0  0  0  0  0  0  0  0999 V2000
  -26.1504  -17.9486  140.2287 O   0  0  0  0  0  0  0  0  0  0  0  0
  -26.3115  -19.0767  140.7799 C   0  0  0  0  0  0  0  0  0  0  0  0
  -25.7339  -18.3915  139.6562 O   0  0  0  0  0  0  0  0  0  0  0  0
  -25.0567  -17.6586  143.3528 C   0  0  0  0  0  0  0  0  0  0  0  0
  -23.1400  -16.1969  143.6483 O   0  0  0  0  0  0  0  0  0  0  0  0
  -25.3994  -19.7029  141.7896 C   0  0  0  0  0  0  0  0  0  0  0  0
  -22.5397  -16.0125  142.3891 C   0  0  0  0  0  0  0  0  0  0  0  0
  -25.5886  -19.0986  143.1883 C   0  0  0  0  0  0  0  0  0  0  0  0
  -23.5164  -17.5121  143.3105 C   0  0  0  0  0  0  0  0  0  0  0  0
  -22.9089  -17.3972  141.9246 C   0  0  0  0  0  0  0  0  0  0  0  0
  -22.6434  -18.6712  144.3632 Cl  0  0  0  0  0  0  0  0  0  0  0  0
  2  1  2  0
  3  2  1  0
  6  2  1  0
  7  5  1  0
  8  4  1  0
  8  6  1  0
  9  4  1  0
  9  5  1  0
 10  7  1  0
 10  9  1  0
 11  9  1  0
M  END
$$$$
