
     RDKit          3D

 10 11  0  0  0  0  0  0  0  0999 V2000
  -27.2755    0.4965  142.2852 C   0  0  0  0  0  0  0  0  0  0  0  0
  -26.5844    1.8461  142.3337 C   0  0  0  0  0  0  0  0  0  0  0  0
  -27.5303    1.5561  141.1873 C   0  0  0  0  0  0  0  0  0  0  0  0
  -28.6106    0.5694  141.5659 C   0  0  0  0  0  0  0  0  0  0  0  0
  -26.3600   -0.6591  141.8064 C   0  0  0  0  0  0  0  0  0  0  0  0
  -26.3952   -1.7309  144.0224 N   0  0  0  0  0  0  0  0  0  0  0  0
  -25.7132   -1.9278  145.3151 C   0  0  0  0  0  0  0  0  0  0  0  0
  -24.3589   -3.2371  145.2427 Si  0  0  0  0  0  4  0  0  0  0  0  0
  -25.1758   -0.7217  145.7879 O   0  0  0  0  0  0  0  0  0  0  0  0
  -25.5198   -1.1883  142.9704 C   0  0  0  0  0  0  0  0  0  0  0  0
  2  1  1  0
  3  1  1  0
  3  2  1  0
  4  1  1  0
  4  3  1  0
  5  1  1  0
  7  6  1  0
  8  7  1  0
  9  7  1  0
 10  5  1  0
 10  6  1  0
M  END
$$$$
