
     RDKit          3D

 11 13  0  0  0  0  0  0  0  0999 V2000
  -25.1277    0.5260  141.1224 O   0  0  0  0  0  0  0  0  0  0  0  0
  -24.7333    0.7147  139.7778 C   0  0  0  0  0  0  0  0  0  0  0  0
  -24.8863   -0.7323  141.4433 O   0  0  0  0  0  0  0  0  0  0  0  0
  -23.6073    1.7165  140.1476 C   0  0  0  0  0  0  0  0  0  0  0  0
  -23.7025    1.3760  138.7825 C   0  0  0  0  0  0  0  0  0  0  0  0
  -22.5099    0.6219  138.1549 C   0  0  0  0  0  0  0  0  0  0  0  0
  -23.4496    3.3158  139.0181 Se  0  0  0  0  0  2  0  0  0  0  0  0
  -22.1738   -1.2018  139.9216 C   0  0  0  0  0  0  0  0  0  0  0  0
  -22.5175   -0.8782  138.4628 C   0  0  0  0  0  0  0  0  0  0  0  0
  -22.3496    1.2674  140.9689 C   0  0  0  0  0  0  0  0  0  0  0  0
  -21.5209   -0.0450  140.7072 C   0  0  0  0  0  0  0  0  0  0  0  0
  2  1  1  0
  3  1  1  0
  4  2  1  0
  5  2  1  0
  5  4  1  0
  6  5  1  0
  7  4  1  0
  7  5  1  0
  9  6  1  0
  9  8  1  0
 10  4  1  0
 11  8  1  0
 11 10  1  0
M  END
$$$$
