
     RDKit          3D

 11 10  0  0  0  0  0  0  0  0999 V2000
  -21.9475  -17.0516  135.1534 N   0  0  0  0  0  0  0  0  0  0  0  0
  -20.8374  -16.0824  135.0663 C   0  0  0  0  0  0  0  0  0  0  0  0
  -23.0941  -16.6598  134.2921 C   0  0  0  0  0  0  0  0  0  0  0  0
  -24.2225  -17.5922  134.4921 N   0  0  0  0  0  0  0  0  0  0  0  0
  -19.9049  -16.2681  136.1755 N   0  0  0  0  0  0  0  0  0  0  0  0
  -22.6952  -16.6197  132.8763 N   0  0  0  0  0  0  0  0  0  0  0  0
  -21.4611  -18.3437  134.8359 N   0  0  0  0  0  0  0  0  0  0  0  0
  -25.5098  -17.0634  133.9957 C   0  0  0  0  0  0  0  0  0  0  0  0
  -26.3996  -16.5199  135.1286 C   0  0  0  0  0  0  0  0  0  0  0  0
  -25.7651  -15.3838  135.7897 N   0  0  0  0  0  0  0  0  0  0  0  0
  -26.3713  -18.3858  133.1689 Cl  0  0  0  0  0  0  0  0  0  0  0  0
  2  1  1  0
  3  1  1  0
  4  3  1  0
  5  2  1  0
  6  3  1  0
  7  1  1  0
  8  4  1  0
  9  8  1  0
 10  9  1  0
 11  8  1  0
M  END
$$$$
