
     RDKit          3D

 11 11  0  0  0  0  0  0  0  0999 V2000
  -20.8256  -12.2759  138.6149 O   0  0  0  0  0  0  0  0  0  0  0  0
  -21.6810  -11.1679  138.4609 C   0  0  0  0  0  0  0  0  0  0  0  0
  -22.9953  -11.4993  138.8156 O   0  0  0  0  0  0  0  0  0  0  0  0
  -20.9894  -10.3839  139.5576 C   0  0  0  0  0  0  0  0  0  0  0  0
  -21.1417   -7.8983  138.8245 C   0  0  0  0  0  0  0  0  0  0  0  0
  -21.8649   -7.3980  140.0853 C   0  0  0  0  0  0  0  0  0  0  0  0
  -22.0791   -8.1683  137.8141 O   0  0  0  0  0  0  0  0  0  0  0  0
  -20.2351   -9.1239  139.0856 C   0  0  0  0  0  0  0  0  0  0  0  0
  -22.9889   -8.2086  140.3614 O   0  0  0  0  0  0  0  0  0  0  0  0
  -23.5963   -7.7769  141.5578 C   0  0  0  0  0  0  0  0  0  0  0  0
  -20.1127  -11.6169  139.6344 C   0  0  0  0  0  0  0  0  0  0  0  0
  2  1  1  0
  3  2  1  0
  4  2  1  0
  6  5  1  0
  7  5  1  0
  8  4  1  0
  8  5  1  0
  9  6  1  0
 10  9  1  0
 11  1  1  0
 11  4  1  0
M  END
$$$$
