
     RDKit          3D

 11 14  0  0  0  0  0  0  0  0999 V2000
  -20.5158   -6.4961  142.1697 C   0  0  0  0  0  0  0  0  0  0  0  0
  -19.2782   -6.3390  141.2362 C   0  0  0  0  0  0  0  0  0  0  0  0
  -21.6412   -7.3382  141.5888 C   0  0  0  0  0  0  0  0  0  0  0  0
  -20.7235   -7.9593  142.6171 C   0  0  0  0  0  0  0  0  0  0  0  0
  -18.8633   -4.8687  140.9855 C   0  0  0  0  0  0  0  0  0  0  0  0
  -19.9147   -3.8733  140.5421 C   0  0  0  0  0  0  0  0  0  0  0  0
  -19.8680   -3.0492  141.7928 C   0  0  0  0  0  0  0  0  0  0  0  0
  -20.1801   -6.9324  143.5866 C   0  0  0  0  0  0  0  0  0  0  0  0
  -21.2473   -4.3445  140.1256 N   0  0  0  0  0  0  0  0  0  0  0  0
  -18.7436   -3.9997  142.2675 C   0  0  0  0  0  0  0  0  0  0  0  0
  -20.4121   -3.4900  139.2386 C   0  0  0  0  0  0  0  0  0  0  0  0
  2  1  1  0
  3  1  1  0
  4  1  1  0
  4  3  1  0
  5  2  1  0
  6  5  1  0
  7  6  1  0
  8  1  1  0
  8  4  1  0
  9  6  1  0
 10  5  1  0
 10  7  1  0
 11  6  1  0
 11  9  1  0
M  END
$$$$
